Version 4
SHEET 1 880 680
WIRE 192 80 192 32
WIRE 192 96 192 80
WIRE 96 128 -112 128
WIRE 96 192 32 192
WIRE 32 224 32 192
FLAG 192 240 0
FLAG 320 160 vout
FLAG -112 208 0
FLAG 32 304 0
FLAG 112 32 0
SYMBOL cmos_nand 192 160 R0
SYMATTR InstName X1
SYMBOL voltage -112 112 R0
WINDOW 123 0 0 Left 0
WINDOW 39 0 0 Left 0
SYMATTR InstName V1
SYMATTR Value PULSE(0 5 0 5n 5n 40m 80m)
SYMBOL voltage 32 208 R0
WINDOW 123 0 0 Left 0
WINDOW 39 0 0 Left 0
SYMATTR InstName V2
SYMATTR Value PULSE(0 5 0 5n 5n 20m 40m)
SYMBOL voltage 208 32 R90
WINDOW 0 -32 56 VBottom 2
WINDOW 3 32 56 VTop 2
WINDOW 123 0 0 Left 0
WINDOW 39 0 0 Left 0
SYMATTR InstName V3
SYMATTR Value 5
TEXT -146 328 Left 2 !.tran 80m
