Version 4
SHEET 1 880 680
WIRE 208 80 208 64
WIRE 128 96 0 96
WIRE 0 112 0 96
WIRE 128 112 128 96
WIRE 336 112 272 112
WIRE 128 144 80 144
WIRE 368 144 272 144
WIRE 80 160 80 144
WIRE 80 256 80 240
FLAG 336 112 sum
FLAG 368 144 carry
FLAG 80 256 0
FLAG 0 192 0
FLAG 208 -16 0
FLAG 208 176 0
SYMBOL halfadder 208 128 R0
SYMATTR InstName X1
SYMBOL voltage 0 96 R0
WINDOW 3 -259 -115 Left 2
WINDOW 123 0 0 Left 0
WINDOW 39 0 0 Left 0
SYMATTR InstName V1
SYMATTR Value PULSE(0 5 0 5n 5n 40m 80m)
SYMBOL voltage 80 144 R0
WINDOW 3 -344 -124 Left 2
WINDOW 123 0 0 Left 0
WINDOW 39 0 0 Left 0
SYMATTR InstName V2
SYMATTR Value PULSE(0 5 0 5n 5n 20m 40m)
SYMBOL voltage 208 80 R180
WINDOW 3 -259 -115 Left 2
WINDOW 123 0 0 Left 0
WINDOW 39 0 0 Left 0
SYMATTR InstName V3
SYMATTR Value 5
TEXT -178 280 Left 2 !.tran 80ms
