Version 4
SHEET 1 880 680
WIRE 224 -128 176 -128
WIRE 336 -80 192 -80
WIRE 448 -32 208 -32
WIRE 576 16 224 16
WIRE 176 64 176 -128
WIRE 192 64 192 -80
WIRE 208 64 208 -32
WIRE 224 64 224 16
WIRE 400 112 352 112
WIRE 384 128 352 128
WIRE 64 144 -336 144
WIRE 416 144 352 144
WIRE 64 160 -256 160
WIRE 448 160 352 160
WIRE -336 176 -336 144
WIRE 64 176 -176 176
WIRE 480 176 352 176
WIRE 64 192 -96 192
WIRE 512 192 352 192
WIRE -256 208 -256 160
WIRE 544 208 352 208
WIRE 576 224 352 224
WIRE -176 240 -176 176
WIRE -96 272 -96 192
WIRE 240 320 240 272
WIRE 176 368 176 272
WIRE 176 528 176 448
FLAG 400 112 po
FLAG 416 144 p2
FLAG 384 128 p1
FLAG 448 160 p3
FLAG 480 176 p4
FLAG 512 192 p5
FLAG 576 224 p7
FLAG 544 208 p6
FLAG 304 -128 0
FLAG 416 -80 0
FLAG 528 -32 0
FLAG 656 16 0
FLAG -336 256 0
FLAG -256 288 0
FLAG -176 320 0
FLAG -96 352 0
FLAG 176 528 0
FLAG 240 320 0
SYMBOL voltage 176 352 R0
WINDOW 123 0 0 Left 0
WINDOW 39 0 0 Left 0
SYMATTR InstName V1
SYMATTR Value 5
SYMBOL voltage 208 -128 R270
WINDOW 0 32 56 VTop 2
WINDOW 3 -106 -640 VBottom 2
WINDOW 123 0 0 Left 0
WINDOW 39 0 0 Left 0
SYMATTR InstName V2
SYMATTR Value PULSE(0 5 0 5n 5n 5m 10m)
SYMBOL voltage 320 -80 R270
WINDOW 0 32 56 VTop 2
WINDOW 3 -85 -744 VBottom 2
WINDOW 123 0 0 Left 0
WINDOW 39 0 0 Left 0
SYMATTR InstName V3
SYMATTR Value PULSE(0 5 0 5n 5n 10m 20m)
SYMBOL voltage 432 -32 R270
WINDOW 0 32 56 VTop 2
WINDOW 3 -60 -857 VBottom 2
WINDOW 123 0 0 Left 0
WINDOW 39 0 0 Left 0
SYMATTR InstName V4
SYMATTR Value PULSE(0 5 0 5n 5n 20m 40m)
SYMBOL voltage 560 16 R270
WINDOW 0 32 56 VTop 2
WINDOW 3 -36 -984 VBottom 2
WINDOW 123 0 0 Left 0
WINDOW 39 0 0 Left 0
SYMATTR InstName V5
SYMATTR Value PULSE(0 5 0 5n 5n 40m 80m)
SYMBOL voltage -336 160 R0
WINDOW 3 -262 -280 Left 2
WINDOW 123 0 0 Left 0
WINDOW 39 0 0 Left 0
SYMATTR Value PULSE(0 5 0 5n 5n 5m 10m)
SYMATTR InstName V6
SYMBOL voltage -256 192 R0
WINDOW 3 -343 -288 Left 2
WINDOW 123 0 0 Left 0
WINDOW 39 0 0 Left 0
SYMATTR Value PULSE(0 5 0 5n 5n 10m 20m)
SYMATTR InstName V7
SYMBOL voltage -176 224 R0
WINDOW 3 -423 -295 Left 2
WINDOW 123 0 0 Left 0
WINDOW 39 0 0 Left 0
SYMATTR Value PULSE(0 5 0 5n 5n 20m 40m)
SYMATTR InstName V8
SYMBOL voltage -96 256 R0
WINDOW 3 -504 -303 Left 2
WINDOW 123 0 0 Left 0
WINDOW 39 0 0 Left 0
SYMATTR Value PULSE(0 5 0 5n 5n 40m 80m)
SYMATTR InstName V9
SYMBOL array_multiplier 224 160 R0
SYMATTR InstName X1
TEXT -600 472 Left 2 !.tran 80m
