Version 4
SHEET 1 880 680
WIRE 208 96 208 32
WIRE 144 128 16 128
WIRE 144 192 112 192
WIRE 112 224 112 192
FLAG 288 160 vout
FLAG 208 224 0
FLAG 128 32 0
FLAG 16 208 0
FLAG 112 304 0
SYMBOL cmos_nor 208 176 R0
SYMATTR InstName X1
SYMBOL voltage 16 112 R0
WINDOW 3 -282 127 Left 2
WINDOW 123 0 0 Left 0
WINDOW 39 0 0 Left 0
SYMATTR InstName V1
SYMATTR Value PULSE(0 5 0 5n 5n 40m 80m)
SYMBOL voltage 112 208 R0
WINDOW 123 0 0 Left 0
WINDOW 39 0 0 Left 0
SYMATTR InstName V2
SYMATTR Value PULSE(0 5 0 5n 5n 20m 40m)
SYMBOL voltage 224 32 R90
WINDOW 0 -32 56 VBottom 2
WINDOW 3 32 56 VTop 2
WINDOW 123 0 0 Left 0
WINDOW 39 0 0 Left 0
SYMATTR InstName V3
SYMATTR Value 5
TEXT -268 328 Left 2 !.tran 80m
