Version 4
SHEET 1 880 680
WIRE 128 144 -80 144
WIRE 320 144 256 144
WIRE -80 160 -80 144
WIRE 128 160 0 160
WIRE 128 176 96 176
WIRE 320 176 256 176
WIRE 96 192 96 176
FLAG 192 208 0
FLAG 320 176 carry
FLAG 320 144 sum
FLAG 192 32 0
FLAG 96 272 0
FLAG 0 240 0
FLAG -80 240 0
SYMBOL fulladder 192 160 R0
SYMATTR InstName X1
SYMBOL voltage 0 144 R0
WINDOW 3 296 -116 Left 2
WINDOW 123 0 0 Left 0
WINDOW 39 0 0 Left 0
SYMATTR InstName V1
SYMATTR Value PULSE(0 5 0 5n 5n 40m 80m)
SYMBOL voltage 96 176 R0
WINDOW 3 197 -91 Left 2
WINDOW 123 0 0 Left 0
WINDOW 39 0 0 Left 0
SYMATTR InstName V2
SYMATTR Value PULSE(0 5 0 5n 5n 20m 40m)
SYMBOL voltage 192 128 R180
WINDOW 0 24 96 Left 2
WINDOW 3 24 16 Left 2
WINDOW 123 0 0 Left 0
WINDOW 39 0 0 Left 0
SYMATTR InstName V3
SYMATTR Value 5
SYMBOL voltage -80 144 R0
WINDOW 3 375 -86 Left 2
WINDOW 123 0 0 Left 0
WINDOW 39 0 0 Left 0
SYMATTR InstName V4
SYMATTR Value PULSE(0 5 0 5n 5n 10m 20m)
TEXT -50 296 Left 2 !.tran 80ms
