Version 4
SHEET 1 880 680
WIRE 80 48 48 48
WIRE 176 48 160 48
WIRE 48 64 48 48
WIRE 176 112 176 48
WIRE -64 128 -96 128
WIRE -96 144 -96 128
WIRE 16 160 16 128
WIRE 128 160 16 160
WIRE 304 160 256 160
WIRE 128 176 48 176
WIRE -32 272 -64 272
WIRE 48 272 48 176
WIRE -64 288 -64 272
FLAG 176 224 0
FLAG 48 64 0
FLAG -96 144 0
FLAG -64 288 0
FLAG 304 160 vout
SYMBOL cmos_and 192 176 R0
SYMATTR InstName X1
SYMBOL voltage 176 48 R90
WINDOW 0 -32 56 VBottom 2
WINDOW 3 12 57 VBottom 2
WINDOW 123 0 0 Left 0
WINDOW 39 0 0 Left 0
SYMATTR InstName V1
SYMATTR Value 5
SYMBOL voltage 32 128 R90
WINDOW 0 -32 56 VBottom 2
WINDOW 3 -12 341 VTop 2
WINDOW 123 0 0 Left 0
WINDOW 39 0 0 Left 0
SYMATTR InstName V2
SYMATTR Value PULSE(0 5 0 5n 5n 40m 80m)
SYMBOL voltage 64 272 R90
WINDOW 0 -32 56 VBottom 2
WINDOW 3 -15 328 VTop 2
WINDOW 123 0 0 Left 0
WINDOW 39 0 0 Left 0
SYMATTR InstName V3
SYMATTR Value PULSE(0 5 0 5n 5n 20m 40m)
TEXT -396 10 Left 2 !.tran 80m
