Version 4
SHEET 1 880 680
WIRE 304 -176 256 -176
WIRE 432 -176 384 -176
WIRE 416 -128 272 -128
WIRE 688 -128 496 -128
WIRE 528 -80 288 -80
WIRE 640 -80 608 -80
WIRE 656 -32 304 -32
WIRE 768 -32 736 -32
WIRE 256 -16 256 -176
WIRE 272 -16 272 -128
WIRE 288 -16 288 -80
WIRE 304 -16 304 -32
WIRE 256 16 256 -16
WIRE 272 16 272 -16
WIRE 288 16 288 -16
WIRE 304 16 304 -16
WIRE 448 64 432 64
WIRE 464 80 432 80
WIRE 16 96 -256 96
WIRE 144 96 16 96
WIRE 496 96 432 96
WIRE 16 112 -176 112
WIRE 144 112 16 112
WIRE 528 112 432 112
WIRE -256 128 -256 96
WIRE 16 128 -96 128
WIRE 144 128 16 128
WIRE 560 128 432 128
WIRE 16 144 -16 144
WIRE 144 144 16 144
WIRE 592 144 432 144
WIRE -176 160 -176 112
WIRE 624 160 432 160
WIRE 656 176 432 176
WIRE -96 192 -96 128
WIRE -16 208 -16 144
WIRE -256 240 -256 208
WIRE -176 272 -176 240
WIRE 256 272 256 224
WIRE 320 272 320 224
WIRE -96 304 -96 272
WIRE -16 336 -16 288
WIRE 256 400 256 352
FLAG 448 64 p0
FLAG 496 96 p2
FLAG 464 80 p1
FLAG 528 112 p3
FLAG 560 128 p4
FLAG 592 144 p5
FLAG 656 176 p7
FLAG 624 160 p6
FLAG 432 -176 0
FLAG 640 -80 0
FLAG 768 -32 0
FLAG -256 240 0
FLAG -176 272 0
FLAG -96 304 0
FLAG 256 400 0
FLAG 320 272 0
FLAG 688 -128 0
FLAG -16 336 0
FLAG 16 96 a0
FLAG 16 112 a1
FLAG 16 128 a2
FLAG 16 144 a3
FLAG 256 -16 b0
FLAG 272 -16 b1
FLAG 288 -16 b2
FLAG 304 -16 b3
SYMBOL voltage 256 256 R0
WINDOW 123 0 0 Left 0
WINDOW 39 0 0 Left 0
SYMATTR InstName V1
SYMATTR Value 5
SYMBOL voltage 288 -176 R270
WINDOW 0 32 56 VTop 2
WINDOW 3 38 95 VBottom 2
WINDOW 123 0 0 Left 0
WINDOW 39 0 0 Left 0
SYMATTR InstName V2
SYMATTR Value 5
SYMBOL voltage 512 -80 R270
WINDOW 0 32 56 VTop 2
WINDOW 3 33 99 VBottom 2
WINDOW 123 0 0 Left 0
WINDOW 39 0 0 Left 0
SYMATTR InstName V3
SYMATTR Value 5
SYMBOL voltage 640 -32 R270
WINDOW 0 32 56 VTop 2
WINDOW 3 28 102 VBottom 2
WINDOW 123 0 0 Left 0
WINDOW 39 0 0 Left 0
SYMATTR InstName V4
SYMATTR Value 5
SYMBOL voltage -256 112 R0
WINDOW 3 -53 56 Left 2
WINDOW 123 0 0 Left 0
WINDOW 39 0 0 Left 0
SYMATTR Value 5
SYMATTR InstName V5
SYMBOL voltage -176 144 R0
WINDOW 3 -37 85 Left 2
WINDOW 123 0 0 Left 0
WINDOW 39 0 0 Left 0
SYMATTR Value 5
SYMATTR InstName V6
SYMBOL voltage -96 176 R0
WINDOW 3 22 91 Left 2
WINDOW 123 0 0 Left 0
WINDOW 39 0 0 Left 0
SYMATTR Value 5
SYMATTR InstName V7
SYMBOL array_multiplier 304 112 R0
SYMATTR InstName X1
SYMBOL voltage -16 192 R0
WINDOW 123 0 0 Left 0
WINDOW 39 0 0 Left 0
SYMATTR InstName V8
SYMATTR Value 0
SYMBOL voltage 400 -128 R270
WINDOW 0 32 56 VTop 2
WINDOW 3 29 97 VBottom 2
WINDOW 123 0 0 Left 0
WINDOW 39 0 0 Left 0
SYMATTR InstName V9
SYMATTR Value 0
TEXT -104 -80 Left 2 !.tran 80m
