Version 4
SHEET 1 880 680
WIRE 240 -144 192 -144
WIRE 368 -144 320 -144
WIRE 352 -96 208 -96
WIRE 624 -96 432 -96
WIRE 464 -48 224 -48
WIRE 576 -48 544 -48
WIRE 592 0 240 0
WIRE 704 0 672 0
WIRE 192 16 192 -144
WIRE 208 16 208 -96
WIRE 224 16 224 -48
WIRE 240 16 240 0
WIRE 192 48 192 16
WIRE 208 48 208 16
WIRE 224 48 224 16
WIRE 240 48 240 16
WIRE 384 96 368 96
WIRE 400 112 368 112
WIRE -48 128 -320 128
WIRE 80 128 -48 128
WIRE 432 128 368 128
WIRE -48 144 -240 144
WIRE 80 144 -48 144
WIRE 464 144 368 144
WIRE -320 160 -320 128
WIRE -48 160 -160 160
WIRE 80 160 -48 160
WIRE 496 160 368 160
WIRE -48 176 -80 176
WIRE 80 176 -48 176
WIRE 528 176 368 176
WIRE -240 192 -240 144
WIRE 560 192 368 192
WIRE 592 208 368 208
WIRE -160 224 -160 160
WIRE -80 240 -80 176
WIRE -320 272 -320 240
WIRE -240 304 -240 272
WIRE 192 304 192 256
WIRE 256 304 256 256
WIRE -160 336 -160 304
WIRE -80 368 -80 320
WIRE 192 432 192 384
FLAG 384 96 p0
FLAG 432 128 p2
FLAG 400 112 p1
FLAG 464 144 p3
FLAG 496 160 p4
FLAG 528 176 p5
FLAG 592 208 p7
FLAG 560 192 p6
FLAG 368 -144 0
FLAG 576 -48 0
FLAG 704 0 0
FLAG -320 272 0
FLAG -240 304 0
FLAG -160 336 0
FLAG 192 432 0
FLAG 256 304 0
FLAG 624 -96 0
FLAG -80 368 0
FLAG -48 128 a0
FLAG -48 144 a1
FLAG -48 160 a2
FLAG -48 176 a3
FLAG 192 16 b0
FLAG 208 16 b1
FLAG 224 16 b2
FLAG 240 16 b3
SYMBOL voltage 192 288 R0
WINDOW 123 0 0 Left 0
WINDOW 39 0 0 Left 0
SYMATTR InstName V1
SYMATTR Value 5
SYMBOL voltage 224 -144 R270
WINDOW 0 32 56 VTop 2
WINDOW 3 38 95 VBottom 2
WINDOW 123 0 0 Left 0
WINDOW 39 0 0 Left 0
SYMATTR InstName V2
SYMATTR Value 0
SYMBOL voltage 448 -48 R270
WINDOW 0 32 56 VTop 2
WINDOW 3 33 99 VBottom 2
WINDOW 123 0 0 Left 0
WINDOW 39 0 0 Left 0
SYMATTR InstName V3
SYMATTR Value 5
SYMBOL voltage 576 0 R270
WINDOW 0 32 56 VTop 2
WINDOW 3 28 102 VBottom 2
WINDOW 123 0 0 Left 0
WINDOW 39 0 0 Left 0
SYMATTR InstName V4
SYMATTR Value 5
SYMBOL voltage -320 144 R0
WINDOW 3 -53 56 Left 2
WINDOW 123 0 0 Left 0
WINDOW 39 0 0 Left 0
SYMATTR Value 5
SYMATTR InstName V5
SYMBOL voltage -240 176 R0
WINDOW 3 -37 85 Left 2
WINDOW 123 0 0 Left 0
WINDOW 39 0 0 Left 0
SYMATTR Value 5
SYMATTR InstName V6
SYMBOL voltage -160 208 R0
WINDOW 3 22 91 Left 2
WINDOW 123 0 0 Left 0
WINDOW 39 0 0 Left 0
SYMATTR Value 0
SYMATTR InstName V7
SYMBOL array_multiplier 240 144 R0
SYMATTR InstName X1
SYMBOL voltage -80 224 R0
WINDOW 123 0 0 Left 0
WINDOW 39 0 0 Left 0
SYMATTR InstName V8
SYMATTR Value 5
SYMBOL voltage 336 -96 R270
WINDOW 0 32 56 VTop 2
WINDOW 3 29 97 VBottom 2
WINDOW 123 0 0 Left 0
WINDOW 39 0 0 Left 0
SYMATTR InstName V9
SYMATTR Value 5
TEXT -168 -48 Left 2 !.tran 80m
