Version 4
SHEET 1 880 680
WIRE 208 -128 160 -128
WIRE 336 -128 288 -128
WIRE 320 -80 176 -80
WIRE 592 -80 400 -80
WIRE 432 -32 192 -32
WIRE 544 -32 512 -32
WIRE 560 16 208 16
WIRE 672 16 640 16
WIRE 160 32 160 -128
WIRE 176 32 176 -80
WIRE 192 32 192 -32
WIRE 208 32 208 16
WIRE 160 64 160 32
WIRE 176 64 176 32
WIRE 192 64 192 32
WIRE 208 64 208 32
WIRE 352 112 336 112
WIRE 368 128 336 128
WIRE -80 144 -352 144
WIRE 48 144 -80 144
WIRE 400 144 336 144
WIRE -80 160 -272 160
WIRE 48 160 -80 160
WIRE 432 160 336 160
WIRE -352 176 -352 144
WIRE -80 176 -192 176
WIRE 48 176 -80 176
WIRE 464 176 336 176
WIRE -80 192 -112 192
WIRE 48 192 -80 192
WIRE 496 192 336 192
WIRE -272 208 -272 160
WIRE 528 208 336 208
WIRE 560 224 336 224
WIRE -192 240 -192 176
WIRE -112 256 -112 192
WIRE -352 288 -352 256
WIRE -272 320 -272 288
WIRE 160 320 160 272
WIRE 224 320 224 272
WIRE -192 352 -192 320
WIRE -112 384 -112 336
WIRE 160 448 160 400
FLAG 352 112 p0
FLAG 400 144 p2
FLAG 368 128 p1
FLAG 432 160 p3
FLAG 464 176 p4
FLAG 496 192 p5
FLAG 560 224 p7
FLAG 528 208 p6
FLAG 336 -128 0
FLAG 544 -32 0
FLAG 672 16 0
FLAG -352 288 0
FLAG -272 320 0
FLAG -192 352 0
FLAG 160 448 0
FLAG 224 320 0
FLAG 592 -80 0
FLAG -112 384 0
FLAG -80 144 a0
FLAG -80 160 a1
FLAG -80 176 a2
FLAG -80 192 a3
FLAG 160 32 b0
FLAG 176 32 b1
FLAG 192 32 b2
FLAG 208 32 b3
SYMBOL voltage 160 304 R0
WINDOW 123 0 0 Left 0
WINDOW 39 0 0 Left 0
SYMATTR InstName V1
SYMATTR Value 5
SYMBOL voltage 192 -128 R270
WINDOW 0 32 56 VTop 2
WINDOW 3 38 95 VBottom 2
WINDOW 123 0 0 Left 0
WINDOW 39 0 0 Left 0
SYMATTR InstName V2
SYMATTR Value 5
SYMBOL voltage 416 -32 R270
WINDOW 0 32 56 VTop 2
WINDOW 3 33 99 VBottom 2
WINDOW 123 0 0 Left 0
WINDOW 39 0 0 Left 0
SYMATTR InstName V3
SYMATTR Value 0
SYMBOL voltage 544 16 R270
WINDOW 0 32 56 VTop 2
WINDOW 3 28 102 VBottom 2
WINDOW 123 0 0 Left 0
WINDOW 39 0 0 Left 0
SYMATTR InstName V4
SYMATTR Value 5
SYMBOL voltage -352 160 R0
WINDOW 3 -53 56 Left 2
WINDOW 123 0 0 Left 0
WINDOW 39 0 0 Left 0
SYMATTR Value 5
SYMATTR InstName V5
SYMBOL voltage -272 192 R0
WINDOW 3 -37 85 Left 2
WINDOW 123 0 0 Left 0
WINDOW 39 0 0 Left 0
SYMATTR Value 0
SYMATTR InstName V6
SYMBOL voltage -192 224 R0
WINDOW 3 22 91 Left 2
WINDOW 123 0 0 Left 0
WINDOW 39 0 0 Left 0
SYMATTR Value 5
SYMATTR InstName V7
SYMBOL array_multiplier 208 160 R0
SYMATTR InstName X1
SYMBOL voltage -112 240 R0
WINDOW 123 0 0 Left 0
WINDOW 39 0 0 Left 0
SYMATTR InstName V8
SYMATTR Value 5
SYMBOL voltage 304 -80 R270
WINDOW 0 32 56 VTop 2
WINDOW 3 29 97 VBottom 2
WINDOW 123 0 0 Left 0
WINDOW 39 0 0 Left 0
SYMATTR InstName V9
SYMATTR Value 5
TEXT -200 -32 Left 2 !.tran 80m
