Version 4
SHEET 1 880 680
WIRE 240 -96 192 -96
WIRE 368 -96 320 -96
WIRE 352 -48 208 -48
WIRE 624 -48 432 -48
WIRE 464 0 224 0
WIRE 576 0 544 0
WIRE 592 48 240 48
WIRE 704 48 672 48
WIRE 192 64 192 -96
WIRE 208 64 208 -48
WIRE 224 64 224 0
WIRE 240 64 240 48
WIRE 192 96 192 64
WIRE 208 96 208 64
WIRE 224 96 224 64
WIRE 240 96 240 64
WIRE 384 144 368 144
WIRE 400 160 368 160
WIRE -48 176 -320 176
WIRE 80 176 -48 176
WIRE 432 176 368 176
WIRE -48 192 -240 192
WIRE 80 192 -48 192
WIRE 464 192 368 192
WIRE -320 208 -320 176
WIRE -48 208 -160 208
WIRE 80 208 -48 208
WIRE 496 208 368 208
WIRE -48 224 -80 224
WIRE 80 224 -48 224
WIRE 528 224 368 224
WIRE -240 240 -240 192
WIRE 560 240 368 240
WIRE 592 256 368 256
WIRE -160 272 -160 208
WIRE -80 288 -80 224
WIRE -320 320 -320 288
WIRE -240 352 -240 320
WIRE 192 352 192 304
WIRE 256 352 256 304
WIRE -160 384 -160 352
WIRE -80 416 -80 368
WIRE 192 480 192 432
FLAG 384 144 p0
FLAG 432 176 p2
FLAG 400 160 p1
FLAG 464 192 p3
FLAG 496 208 p4
FLAG 528 224 p5
FLAG 592 256 p7
FLAG 560 240 p6
FLAG 368 -96 0
FLAG 576 0 0
FLAG 704 48 0
FLAG -320 320 0
FLAG -240 352 0
FLAG -160 384 0
FLAG 192 480 0
FLAG 256 352 0
FLAG 624 -48 0
FLAG -80 416 0
FLAG -48 176 a0
FLAG -48 192 a1
FLAG -48 208 a2
FLAG -48 224 a3
FLAG 192 64 b0
FLAG 208 64 b1
FLAG 224 64 b2
FLAG 240 64 b3
SYMBOL voltage 192 336 R0
WINDOW 123 0 0 Left 0
WINDOW 39 0 0 Left 0
SYMATTR InstName V1
SYMATTR Value 5
SYMBOL voltage 224 -96 R270
WINDOW 0 32 56 VTop 2
WINDOW 3 38 95 VBottom 2
WINDOW 123 0 0 Left 0
WINDOW 39 0 0 Left 0
SYMATTR InstName V2
SYMATTR Value 5
SYMBOL voltage 448 0 R270
WINDOW 0 32 56 VTop 2
WINDOW 3 33 99 VBottom 2
WINDOW 123 0 0 Left 0
WINDOW 39 0 0 Left 0
SYMATTR InstName V3
SYMATTR Value 5
SYMBOL voltage 576 48 R270
WINDOW 0 32 56 VTop 2
WINDOW 3 28 102 VBottom 2
WINDOW 123 0 0 Left 0
WINDOW 39 0 0 Left 0
SYMATTR InstName V4
SYMATTR Value 0
SYMBOL voltage -320 192 R0
WINDOW 3 -53 56 Left 2
WINDOW 123 0 0 Left 0
WINDOW 39 0 0 Left 0
SYMATTR Value 0
SYMATTR InstName V5
SYMBOL voltage -240 224 R0
WINDOW 3 -37 85 Left 2
WINDOW 123 0 0 Left 0
WINDOW 39 0 0 Left 0
SYMATTR Value 5
SYMATTR InstName V6
SYMBOL voltage -160 256 R0
WINDOW 3 22 91 Left 2
WINDOW 123 0 0 Left 0
WINDOW 39 0 0 Left 0
SYMATTR Value 5
SYMATTR InstName V7
SYMBOL array_multiplier 240 192 R0
SYMATTR InstName X1
SYMBOL voltage -80 272 R0
WINDOW 123 0 0 Left 0
WINDOW 39 0 0 Left 0
SYMATTR InstName V8
SYMATTR Value 5
SYMBOL voltage 336 -48 R270
WINDOW 0 32 56 VTop 2
WINDOW 3 29 97 VBottom 2
WINDOW 123 0 0 Left 0
WINDOW 39 0 0 Left 0
SYMATTR InstName V9
SYMATTR Value 5
TEXT -168 0 Left 2 !.tran 80m
