Version 4
SHEET 1 880 680
WIRE 464 -64 176 -64
WIRE 464 0 464 -64
WIRE 176 96 176 -64
WIRE 96 160 -48 160
WIRE -48 176 -48 160
WIRE 176 272 176 224
FLAG 176 272 0
FLAG 464 80 0
FLAG -48 256 0
FLAG 288 160 vout
SYMBOL inverter 176 160 R0
SYMATTR InstName X1
SYMBOL voltage -48 160 R0
WINDOW 123 0 0 Left 0
WINDOW 39 0 0 Left 0
SYMATTR InstName V1
SYMATTR Value PULSE(0 5 0 1n 1n 0.5 1)
SYMBOL voltage 464 -16 R0
WINDOW 123 0 0 Left 0
WINDOW 39 0 0 Left 0
SYMATTR InstName V2
SYMATTR Value 5
TEXT -82 296 Left 2 !.tran 5
